*Heading
** Job name: gel_rheometer Model name: Model-1
** Generated by: Abaqus/CAE 2024
*Preprint, echo=NO, model=NO, history=NO, contact=NO
**
** PARTS
**
*Part, name=bottom
*End Part
**  
*Part, name=gel
*Node
      1,   1732.05078,         140.,        1000.
      2,   17320.5078,         140.,       10000.
      3,       20000.,         140.,           0.
      4,        2000.,         140.,           0.
      5,           0.,         140.,           0.
      6,   1905.25586,         140.,        1100.
      7,   2078.46094,         140.,        1200.
      8,   2251.66602,         140.,        1300.
      9,   2424.87109,         140.,        1400.
     10,   2598.07617,         140.,        1500.
     11,   2771.28125,         140.,        1600.
     12,   2944.48633,         140.,        1700.
     13,   3117.69141,         140.,        1800.
     14,   3290.89648,         140.,        1900.
     15,   3464.10156,         140.,        2000.
     16,   3637.30664,         140.,        2100.
     17,   3810.51172,         140.,        2200.
     18,    3983.7168,         140.,        2300.
     19,   4156.92188,         140.,        2400.
     20,   4330.12695,         140.,        2500.
** ... 6686 like lines cut
*Element, type=C3D8
   1,  303,  821, 2770,  806, 3656, 4174, 6123, 4159
   2,  804, 1208, 1059,  808, 4157, 4561, 4412, 4161
   3, 1310,  802, 1033, 1135, 4663, 4155, 4386, 4488
   4, 1138, 2803,  801, 1045, 4491, 6156, 4154, 4398
   5,  298, 2829, 1613, 1455, 3651, 6182, 4966, 4808
   6, 1252,  297, 1251, 1173, 4605, 3650, 4604, 4526
   7, 1173,  798, 1044, 1107, 4526, 4151, 4397, 4460
   8, 1967, 2851, 1690, 1750, 5320, 6204, 5043, 5103
   9, 1896, 2824, 2010, 1829, 5249, 6177, 5363, 5182
  10,  294, 1895, 2100, 1982, 3647, 5248, 5453, 5335
  11, 1732, 1695,  293, 1632, 5085, 5048, 3646, 4985
  12, 2844, 1322, 1088, 1237, 6197, 4675, 4441, 4590
  13, 1043,  792, 1160, 1088, 4396, 4145, 4513, 4441
  14, 1452, 1534,  291, 1397, 4805, 4887, 3644, 4750
  15, 1336,  790, 1042, 1124, 4689, 4143, 4395, 4477
  16, 1042,  789, 1178, 1124, 4395, 4142, 4531, 4477
  17, 1469, 1338, 1182,  287, 4822, 4691, 4535, 3640
  18, 1180, 1137,  787, 1032, 4533, 4490, 4140, 4385
  19, 2822,  786, 1041, 1131, 6175, 4139, 4394, 4484
  20, 1041,  785, 1382, 1131, 4394, 4138, 4735, 4484
** ... 3206 like lines cut
*Nset, nset=gel, generate
    1,  6706,     1
*Elset, elset=gel, generate
    1,  3226,     1
** Section: gel
*Solid Section, elset=gel, material=UD
** ,
*End Part
** ----------------------------------------------------------------
**                        PARAMETERS
** ----------------------------------------------------------------
*INCLUDE, input=material_param.inp
** ----------------------------------------------------------------
**                         SECTIONS
** ----------------------------------------------------------------
** Section: gel
*INCLUDE, file=sec_gel.inp
**  
*Part, name=top
*End Part
**  
**
** ASSEMBLY
**
*Assembly, name=Assembly
**  
*Instance, name=gel-1, part=gel
*End Instance
**  
*Instance, name=bottom-1, part=bottom
*Node
      1,       20000.,       -2000.,           0.
*Nset, nset=bottom-1-RefPt_, internal
1, 
*Surface, type=REVOLUTION, name=master_bottom
START,           0.,           0.
 LINE,       20000.,           0.
 LINE,       20000.,       -2000.
 LINE,           0.,       -2000.
*Rigid Body, ref node=bottom-1-RefPt_, analytical surface=master_bottom
*End Instance
**  
*Instance, name=top-1, part=top
*Node
      1,        2000.,         140.,           0.
*Nset, nset=top-1-RefPt_, internal
1, 
*Surface, type=REVOLUTION, name=master_top
START,           0.,        7140.
 LINE,        5000.,        7140.
 LINE,        5000.,        2140.
 LINE,       20000.,        2140.
 LINE,       20000.,         140.
 LINE,        2000.,         140.
 LINE,           0.,         140.
*Rigid Body, ref node=top-1-RefPt_, analytical surface=master_top
*End Instance
**  
*Nset, nset=bottom_rp, instance=bottom-1
 1,
*Nset, nset=top_rp, instance=top-1
 1,
*Elset, elset=_slave_bottom_S2, internal, instance=gel-1, generate
    1,  3226,     1
*Surface, type=ELEMENT, name=slave_bottom
_slave_bottom_S2, S2
*Elset, elset=_slave_top_S1, internal, instance=gel-1, generate
    1,  3226,     1
*Surface, type=ELEMENT, name=slave_top
_slave_top_S1, S1
** Constraint: tie_bottom
*Tie, name=tie_bottom, adjust=yes
slave_bottom, bottom-1.master_bottom
** Constraint: tie_top
*Tie, name=tie_top, adjust=yes
slave_top, top-1.master_top
*End Assembly
** 
** MATERIALS
** 
*Material, name=gel
*Hyperelastic, neo hooke
1., 0.0005
** 
** BOUNDARY CONDITIONS
** 
** Name: fix_bottom Type: Displacement/Rotation
*Boundary
bottom_rp, 1, 1
bottom_rp, 2, 2
bottom_rp, 3, 3
bottom_rp, 4, 4
bottom_rp, 5, 5
bottom_rp, 6, 6
** ----------------------------------------------------------------
** 
** STEP: rotation
** 
*Step, name=rotation, nlgeom=YES
*Static
0.1, 1., 1e-05, 0.1
** 
** BOUNDARY CONDITIONS
** 
** Name: top_rotation Type: Displacement/Rotation
*Boundary
top_rp, 1, 1
top_rp, 2, 2
top_rp, 3, 3
top_rp, 4, 4
top_rp, 5, 5, 0.0021
top_rp, 6, 6
** 
** OUTPUT REQUESTS
** 
*Restart, write, frequency=0
** 
** FIELD OUTPUT: F-Output-1
** 
*Output, field, variable=PRESELECT
** 
** HISTORY OUTPUT: H-Output-1
** 
*Output, history, variable=PRESELECT
*End Step
